Version 4.1
SHEET 1 1048 788
WIRE 336 -16 -16 -16
WIRE 160 16 160 -48
WIRE 160 16 16 16
WIRE 288 16 160 16
WIRE 288 32 288 16
WIRE 384 32 288 32
WIRE 48 64 -48 64
WIRE 288 64 288 32
WIRE 288 64 272 64
WIRE -48 80 -48 64
WIRE 384 112 352 112
WIRE 544 112 384 112
WIRE -16 128 -16 -16
WIRE 48 128 -16 128
WIRE 352 128 352 112
WIRE 352 128 272 128
WIRE -400 144 -400 128
WIRE 48 192 -48 192
WIRE 336 192 336 -16
WIRE 336 192 272 192
WIRE 384 192 336 192
WIRE -400 256 -400 224
WIRE 16 256 16 16
WIRE 48 256 16 256
WIRE 304 256 272 256
WIRE 304 272 304 256
WIRE 384 272 384 192
WIRE 384 352 384 336
WIRE 736 400 384 400
WIRE 560 432 560 368
WIRE 560 432 416 432
WIRE 688 432 560 432
WIRE 688 448 688 432
WIRE 784 448 688 448
WIRE 448 480 352 480
WIRE 688 480 688 448
WIRE 688 480 672 480
WIRE 352 496 352 480
WIRE 784 528 752 528
WIRE 384 544 384 400
WIRE 448 544 384 544
WIRE 752 544 752 528
WIRE 752 544 672 544
WIRE 304 608 304 336
WIRE 448 608 304 608
WIRE 736 608 736 400
WIRE 736 608 672 608
WIRE 784 608 736 608
WIRE 416 672 416 432
WIRE 448 672 416 672
WIRE 704 672 672 672
WIRE 704 688 704 672
WIRE 784 688 784 608
WIRE 704 768 704 752
WIRE 784 768 784 752
FLAG -400 256 0
FLAG -400 128 Vcc
FLAG 384 352 0
FLAG 160 -48 Vcc
FLAG -48 80 0
FLAG -48 192 out
IOPIN -48 192 Out
FLAG 384 192 stylus
FLAG 544 192 stylus
FLAG 704 768 0
FLAG 784 768 0
FLAG 560 368 Vcc
FLAG 352 496 0
SYMBOL Misc\\NE555 160 160 R0
SYMATTR InstName U1
SYMBOL voltage -400 128 R0
WINDOW 123 0 0 Left 0
WINDOW 39 0 0 Left 0
SYMATTR InstName V1
SYMATTR Value 5
SYMBOL cap 288 272 R0
SYMATTR InstName C1
SYMATTR Value 10n
SYMBOL cap 368 272 R0
SYMATTR InstName C2
SYMATTR Value 180n
SYMBOL res 528 96 R0
SYMATTR InstName NOTE
SYMATTR Value 10k
SYMBOL res 368 16 R0
SYMATTR InstName R1
SYMATTR Value 10k
SYMBOL Misc\\NE555 560 576 R0
SYMATTR InstName U2
SYMBOL cap 688 688 R0
SYMATTR InstName C3
SYMATTR Value 10n
SYMBOL cap 768 688 R0
SYMATTR InstName C4
SYMATTR Value 1µ
SYMBOL res 768 432 R0
SYMATTR InstName R2
SYMATTR Value 10k
SYMBOL res 768 512 R0
SYMATTR InstName R3
SYMATTR Value 10k
TEXT -32 408 Left 2 !.tran 0.1
TEXT 504 24 Left 2 ;f=1,44/(r1+2r2)*C. C4=261Hz
TEXT 656 360 Left 2 ;tremolo
